
This summary information was generated by ElastoDyn (v1.04.00a-bjj, 26-Jul-2016) on 22-May-2019 at 23:24:14.


Turbine features:

            Upwind, three-bladed rotor with rigid hub.
            The model has 0 of 24 DOFs active (enabled) at start-up.
 Disabled   Platform horizontal surge translation DOF 
 Disabled   Platform horizontal sway translation DOF 
 Disabled   Platform vertical heave translation DOF 
 Disabled   Platform roll tilt rotation DOF 
 Disabled   Platform pitch tilt rotation DOF 
 Disabled   Platform yaw rotation DOF 
 Disabled   1st tower fore-aft bending mode DOF 
 Disabled   1st tower side-to-side bending mode DOF 
 Disabled   2nd tower fore-aft bending mode DOF 
 Disabled   2nd tower side-to-side bending mode DOF 
 Disabled   Nacelle yaw DOF 
 Disabled   Rotor-furl DOF 
 Disabled   Variable speed generator DOF 
 Disabled   Drivetrain rotational-flexibility DOF 
 Disabled   Tail-furl DOF 
 Disabled   1st flapwise bending-mode DOF of blade 1 
 Disabled   1st edgewise bending-mode DOF of blade 1 
 Disabled   2nd flapwise bending-mode DOF of blade 1 
 Disabled   1st flapwise bending-mode DOF of blade 2 
 Disabled   1st edgewise bending-mode DOF of blade 2 
 Disabled   2nd flapwise bending-mode DOF of blade 2 
 Disabled   1st flapwise bending-mode DOF of blade 3 
 Disabled   1st edgewise bending-mode DOF of blade 3 
 Disabled   2nd flapwise bending-mode DOF of blade 3 


Time steps:

    Structural            (s)        0.00800000


Some calculated parameters:

    Hub-Height            (m)            90.437
    Flexible Tower Length (m)            87.600
    Flexible Blade Length (m)            61.500


Rotor mass properties:

    Rotor Mass            (kg)       110849.102
    Rotor Inertia         (kg-m^2) 37379036.000
                                        Blade 1      Blade 2      Blade 3
                                        -------      -------      -------
    Mass                  (kg)        18016.367    18016.367    18016.367
    Second Mass Moment    (kg-m^2) 11328015.000 11328015.000 11328015.000
    First Mass Moment     (kg-m)     358720.562   358720.562   358720.562
    Center of Mass        (m)            19.911       19.911       19.911


Additional mass properties:

    Tower-top Mass        (kg)       350849.094
    Tower Mass            (kg)       347423.906
    Platform Mass         (kg)            0.000
    Mass Incl. Platform   (kg)       698273.000


Interpolated tower properties:

Node  TwFract   HNodes  DHNodes  TMassDen    FAStiff    SSStiff
 (-)      (-)      (m)      (m)    (kg/m)     (Nm^2)     (Nm^2)
   1    0.045    3.982    7.964  5427.945  5.782E+11  5.782E+11
   2    0.136   11.945    7.964  5106.364  5.088E+11  5.088E+11
   3    0.227   19.909    7.964  4794.463  4.458E+11  4.458E+11
   4    0.318   27.873    7.964  4492.154  3.887E+11  3.887E+11
   5    0.409   35.836    7.964  4199.491  3.373E+11  3.373E+11
   6    0.500   43.800    7.964  3916.400  2.910E+11  2.910E+11
   7    0.591   51.764    7.964  3644.036  2.501E+11  2.501E+11
   8    0.682   59.727    7.964  3381.327  2.137E+11  2.137E+11
   9    0.773   67.691    7.964  3128.272  1.813E+11  1.813E+11
  10    0.864   75.655    7.964  2884.809  1.527E+11  1.527E+11
  11    0.955   83.618    7.964  2651.027  1.276E+11  1.276E+11


Interpolated blade 1 properties:

Node  BlFract   RNodes  DRNodes PitchAxis  StrcTwst  BMassDen    FlpStff    EdgStff
 (-)      (-)      (m)      (m)       (-)     (deg)    (kg/m)     (Nm^2)     (Nm^2)
   1    0.010    2.128    1.255     0.507    13.235   717.868  1.811E+10  1.811E+10
   2    0.031    3.383    1.255     0.495    13.235   764.609  1.872E+10  1.879E+10
   3    0.051    4.638    1.255     0.482    13.235   801.882  1.819E+10  1.958E+10
   4    0.071    5.893    1.255     0.467    13.235   736.914  1.468E+10  1.823E+10
   5    0.092    7.148    1.255     0.453    13.235   592.926  1.000E+10  1.383E+10
   6    0.112    8.403    1.255     0.437    13.235   459.166  6.675E+09  9.556E+09
   7    0.133    9.658    1.255     0.420    13.235   425.975  5.625E+09  8.080E+09
   8    0.153   10.913    1.255     0.405    13.235   412.580  5.004E+09  7.015E+09
   9    0.173   12.168    1.255     0.393    13.130   432.508  4.758E+09  7.090E+09
  10    0.194   13.423    1.255     0.384    12.698   443.162  4.130E+09  7.203E+09
  11    0.214   14.679    1.255     0.378    12.010   423.176  3.324E+09  6.851E+09
  12    0.235   15.934    1.255     0.375    11.388   392.040  2.776E+09  5.814E+09
  13    0.255   17.189    1.255     0.375    10.942   370.054  2.429E+09  4.955E+09
  14    0.276   18.444    1.255     0.375    10.543   365.987  2.261E+09  4.791E+09
  15    0.296   19.699    1.255     0.375    10.165   361.120  2.115E+09  4.591E+09
  16    0.316   20.954    1.255     0.375     9.799   355.310  1.970E+09  4.405E+09
  17    0.337   22.209    1.255     0.375     9.450   348.806  1.822E+09  4.239E+09
  18    0.357   23.464    1.255     0.375     9.103   343.159  1.666E+09  4.075E+09
  19    0.378   24.719    1.255     0.375     8.743   337.748  1.513E+09  3.915E+09
  20    0.398   25.974    1.255     0.375     8.374   331.353  1.363E+09  3.751E+09
  21    0.418   27.230    1.255     0.375     7.999   318.567  1.193E+09  3.557E+09
  22    0.439   28.485    1.255     0.375     7.621   308.932  1.030E+09  3.356E+09
  23    0.459   29.740    1.255     0.375     7.236   303.682  8.842E+08  3.150E+09
  24    0.480   30.995    1.255     0.375     6.850   287.883  7.505E+08  2.873E+09
  25    0.500   32.250    1.255     0.375     6.471   274.913  6.374E+08  2.676E+09
  26    0.520   33.505    1.255     0.375     6.104   268.469  5.441E+08  2.568E+09
  27    0.541   34.760    1.255     0.375     5.743   261.110  4.574E+08  2.439E+09
  28    0.561   36.015    1.255     0.375     5.384   250.740  3.839E+08  2.222E+09
  29    0.582   37.270    1.255     0.375     5.022   235.544  3.232E+08  1.874E+09
  30    0.602   38.526    1.255     0.375     4.658   221.290  2.706E+08  1.687E+09
  31    0.622   39.781    1.255     0.375     4.301   206.815  2.244E+08  1.523E+09
  32    0.643   41.036    1.255     0.375     3.955   192.380  1.835E+08  1.354E+09
  33    0.663   42.291    1.255     0.375     3.615   181.238  1.463E+08  1.248E+09
  34    0.684   43.546    1.255     0.375     3.292   172.531  1.228E+08  1.154E+09
  35    0.704   44.801    1.255     0.375     3.000   165.057  1.099E+08  1.047E+09
  36    0.724   46.056    1.255     0.375     2.741   154.808  9.891E+07  9.001E+08
  37    0.745   47.311    1.255     0.375     2.501   145.764  8.863E+07  7.902E+08
  38    0.765   48.566    1.255     0.375     2.261   138.856  7.902E+07  7.255E+08
  39    0.786   49.821    1.255     0.375     2.019   125.305  6.895E+07  6.133E+08
  40    0.806   51.077    1.255     0.375     1.776   113.131  5.968E+07  5.174E+08
  41    0.827   52.332    1.255     0.375     1.534   106.195  5.190E+07  4.670E+08
  42    0.847   53.587    1.255     0.375     1.289   100.736  4.496E+07  4.296E+08
  43    0.867   54.842    1.255     0.375     1.044    93.529  3.848E+07  3.855E+08
  44    0.888   56.097    1.255     0.375     0.803    82.183  3.255E+07  3.286E+08
  45    0.908   57.352    1.255     0.375     0.560    73.395  2.696E+07  2.833E+08
  46    0.929   58.607    1.255     0.375     0.348    63.331  1.893E+07  1.895E+08
  47    0.949   59.862    1.255     0.375     0.188    52.362  1.058E+07  1.041E+08
  48    0.969   61.117    1.255     0.375     0.073    28.436  3.515E+06  4.187E+07
  49    0.990   62.372    1.255     0.375     0.014    10.980  2.172E+06  4.750E+07


Interpolated blade 2 properties:

Node  BlFract   RNodes  DRNodes PitchAxis  StrcTwst  BMassDen    FlpStff    EdgStff
 (-)      (-)      (m)      (m)       (-)     (deg)    (kg/m)     (Nm^2)     (Nm^2)
   1    0.010    2.128    1.255     0.507    13.235   717.868  1.811E+10  1.811E+10
   2    0.031    3.383    1.255     0.495    13.235   764.609  1.872E+10  1.879E+10
   3    0.051    4.638    1.255     0.482    13.235   801.882  1.819E+10  1.958E+10
   4    0.071    5.893    1.255     0.467    13.235   736.914  1.468E+10  1.823E+10
   5    0.092    7.148    1.255     0.453    13.235   592.926  1.000E+10  1.383E+10
   6    0.112    8.403    1.255     0.437    13.235   459.166  6.675E+09  9.556E+09
   7    0.133    9.658    1.255     0.420    13.235   425.975  5.625E+09  8.080E+09
   8    0.153   10.913    1.255     0.405    13.235   412.580  5.004E+09  7.015E+09
   9    0.173   12.168    1.255     0.393    13.130   432.508  4.758E+09  7.090E+09
  10    0.194   13.423    1.255     0.384    12.698   443.162  4.130E+09  7.203E+09
  11    0.214   14.679    1.255     0.378    12.010   423.176  3.324E+09  6.851E+09
  12    0.235   15.934    1.255     0.375    11.388   392.040  2.776E+09  5.814E+09
  13    0.255   17.189    1.255     0.375    10.942   370.054  2.429E+09  4.955E+09
  14    0.276   18.444    1.255     0.375    10.543   365.987  2.261E+09  4.791E+09
  15    0.296   19.699    1.255     0.375    10.165   361.120  2.115E+09  4.591E+09
  16    0.316   20.954    1.255     0.375     9.799   355.310  1.970E+09  4.405E+09
  17    0.337   22.209    1.255     0.375     9.450   348.806  1.822E+09  4.239E+09
  18    0.357   23.464    1.255     0.375     9.103   343.159  1.666E+09  4.075E+09
  19    0.378   24.719    1.255     0.375     8.743   337.748  1.513E+09  3.915E+09
  20    0.398   25.974    1.255     0.375     8.374   331.353  1.363E+09  3.751E+09
  21    0.418   27.230    1.255     0.375     7.999   318.567  1.193E+09  3.557E+09
  22    0.439   28.485    1.255     0.375     7.621   308.932  1.030E+09  3.356E+09
  23    0.459   29.740    1.255     0.375     7.236   303.682  8.842E+08  3.150E+09
  24    0.480   30.995    1.255     0.375     6.850   287.883  7.505E+08  2.873E+09
  25    0.500   32.250    1.255     0.375     6.471   274.913  6.374E+08  2.676E+09
  26    0.520   33.505    1.255     0.375     6.104   268.469  5.441E+08  2.568E+09
  27    0.541   34.760    1.255     0.375     5.743   261.110  4.574E+08  2.439E+09
  28    0.561   36.015    1.255     0.375     5.384   250.740  3.839E+08  2.222E+09
  29    0.582   37.270    1.255     0.375     5.022   235.544  3.232E+08  1.874E+09
  30    0.602   38.526    1.255     0.375     4.658   221.290  2.706E+08  1.687E+09
  31    0.622   39.781    1.255     0.375     4.301   206.815  2.244E+08  1.523E+09
  32    0.643   41.036    1.255     0.375     3.955   192.380  1.835E+08  1.354E+09
  33    0.663   42.291    1.255     0.375     3.615   181.238  1.463E+08  1.248E+09
  34    0.684   43.546    1.255     0.375     3.292   172.531  1.228E+08  1.154E+09
  35    0.704   44.801    1.255     0.375     3.000   165.057  1.099E+08  1.047E+09
  36    0.724   46.056    1.255     0.375     2.741   154.808  9.891E+07  9.001E+08
  37    0.745   47.311    1.255     0.375     2.501   145.764  8.863E+07  7.902E+08
  38    0.765   48.566    1.255     0.375     2.261   138.856  7.902E+07  7.255E+08
  39    0.786   49.821    1.255     0.375     2.019   125.305  6.895E+07  6.133E+08
  40    0.806   51.077    1.255     0.375     1.776   113.131  5.968E+07  5.174E+08
  41    0.827   52.332    1.255     0.375     1.534   106.195  5.190E+07  4.670E+08
  42    0.847   53.587    1.255     0.375     1.289   100.736  4.496E+07  4.296E+08
  43    0.867   54.842    1.255     0.375     1.044    93.529  3.848E+07  3.855E+08
  44    0.888   56.097    1.255     0.375     0.803    82.183  3.255E+07  3.286E+08
  45    0.908   57.352    1.255     0.375     0.560    73.395  2.696E+07  2.833E+08
  46    0.929   58.607    1.255     0.375     0.348    63.331  1.893E+07  1.895E+08
  47    0.949   59.862    1.255     0.375     0.188    52.362  1.058E+07  1.041E+08
  48    0.969   61.117    1.255     0.375     0.073    28.436  3.515E+06  4.187E+07
  49    0.990   62.372    1.255     0.375     0.014    10.980  2.172E+06  4.750E+07


Interpolated blade 3 properties:

Node  BlFract   RNodes  DRNodes PitchAxis  StrcTwst  BMassDen    FlpStff    EdgStff
 (-)      (-)      (m)      (m)       (-)     (deg)    (kg/m)     (Nm^2)     (Nm^2)
   1    0.010    2.128    1.255     0.507    13.235   717.868  1.811E+10  1.811E+10
   2    0.031    3.383    1.255     0.495    13.235   764.609  1.872E+10  1.879E+10
   3    0.051    4.638    1.255     0.482    13.235   801.882  1.819E+10  1.958E+10
   4    0.071    5.893    1.255     0.467    13.235   736.914  1.468E+10  1.823E+10
   5    0.092    7.148    1.255     0.453    13.235   592.926  1.000E+10  1.383E+10
   6    0.112    8.403    1.255     0.437    13.235   459.166  6.675E+09  9.556E+09
   7    0.133    9.658    1.255     0.420    13.235   425.975  5.625E+09  8.080E+09
   8    0.153   10.913    1.255     0.405    13.235   412.580  5.004E+09  7.015E+09
   9    0.173   12.168    1.255     0.393    13.130   432.508  4.758E+09  7.090E+09
  10    0.194   13.423    1.255     0.384    12.698   443.162  4.130E+09  7.203E+09
  11    0.214   14.679    1.255     0.378    12.010   423.176  3.324E+09  6.851E+09
  12    0.235   15.934    1.255     0.375    11.388   392.040  2.776E+09  5.814E+09
  13    0.255   17.189    1.255     0.375    10.942   370.054  2.429E+09  4.955E+09
  14    0.276   18.444    1.255     0.375    10.543   365.987  2.261E+09  4.791E+09
  15    0.296   19.699    1.255     0.375    10.165   361.120  2.115E+09  4.591E+09
  16    0.316   20.954    1.255     0.375     9.799   355.310  1.970E+09  4.405E+09
  17    0.337   22.209    1.255     0.375     9.450   348.806  1.822E+09  4.239E+09
  18    0.357   23.464    1.255     0.375     9.103   343.159  1.666E+09  4.075E+09
  19    0.378   24.719    1.255     0.375     8.743   337.748  1.513E+09  3.915E+09
  20    0.398   25.974    1.255     0.375     8.374   331.353  1.363E+09  3.751E+09
  21    0.418   27.230    1.255     0.375     7.999   318.567  1.193E+09  3.557E+09
  22    0.439   28.485    1.255     0.375     7.621   308.932  1.030E+09  3.356E+09
  23    0.459   29.740    1.255     0.375     7.236   303.682  8.842E+08  3.150E+09
  24    0.480   30.995    1.255     0.375     6.850   287.883  7.505E+08  2.873E+09
  25    0.500   32.250    1.255     0.375     6.471   274.913  6.374E+08  2.676E+09
  26    0.520   33.505    1.255     0.375     6.104   268.469  5.441E+08  2.568E+09
  27    0.541   34.760    1.255     0.375     5.743   261.110  4.574E+08  2.439E+09
  28    0.561   36.015    1.255     0.375     5.384   250.740  3.839E+08  2.222E+09
  29    0.582   37.270    1.255     0.375     5.022   235.544  3.232E+08  1.874E+09
  30    0.602   38.526    1.255     0.375     4.658   221.290  2.706E+08  1.687E+09
  31    0.622   39.781    1.255     0.375     4.301   206.815  2.244E+08  1.523E+09
  32    0.643   41.036    1.255     0.375     3.955   192.380  1.835E+08  1.354E+09
  33    0.663   42.291    1.255     0.375     3.615   181.238  1.463E+08  1.248E+09
  34    0.684   43.546    1.255     0.375     3.292   172.531  1.228E+08  1.154E+09
  35    0.704   44.801    1.255     0.375     3.000   165.057  1.099E+08  1.047E+09
  36    0.724   46.056    1.255     0.375     2.741   154.808  9.891E+07  9.001E+08
  37    0.745   47.311    1.255     0.375     2.501   145.764  8.863E+07  7.902E+08
  38    0.765   48.566    1.255     0.375     2.261   138.856  7.902E+07  7.255E+08
  39    0.786   49.821    1.255     0.375     2.019   125.305  6.895E+07  6.133E+08
  40    0.806   51.077    1.255     0.375     1.776   113.131  5.968E+07  5.174E+08
  41    0.827   52.332    1.255     0.375     1.534   106.195  5.190E+07  4.670E+08
  42    0.847   53.587    1.255     0.375     1.289   100.736  4.496E+07  4.296E+08
  43    0.867   54.842    1.255     0.375     1.044    93.529  3.848E+07  3.855E+08
  44    0.888   56.097    1.255     0.375     0.803    82.183  3.255E+07  3.286E+08
  45    0.908   57.352    1.255     0.375     0.560    73.395  2.696E+07  2.833E+08
  46    0.929   58.607    1.255     0.375     0.348    63.331  1.893E+07  1.895E+08
  47    0.949   59.862    1.255     0.375     0.188    52.362  1.058E+07  1.041E+08
  48    0.969   61.117    1.255     0.375     0.073    28.436  3.515E+06  4.187E+07
  49    0.990   62.372    1.255     0.375     0.014    10.980  2.172E+06  4.750E+07


Requested Outputs:


  Col  Parameter  Units
  ---  ---------  -----
   0   Time       (s)       
   1   OoPDefl1   (m)       
   2   OoPDefl2   (m)       
   3   OoPDefl3   (m)       
   4   IPDefl1    (m)       
   5   IPDefl2    (m)       
   6   IPDefl3    (m)       
   7   NcIMUTAxs  (m/s^2)   
   8   NcIMUTAys  (m/s^2)   
   9   NcIMUTAzs  (m/s^2)   
  10   RootMOoP1  (kN·m)    
  11   RootMOoP2  (kN·m)    
  12   RootMOoP3  (kN·m)    
  13   RootMIP1   (kN·m)    
  14   RootMIP2   (kN·m)    
  15   RootMIP3   (kN·m)    
  16   RootMFlp1  (kN·m)    
  17   RootMFlp2  (kN·m)    
  18   RootMFlp3  (kN·m)    
  19   RootMEdg1  (kN·m)    
  20   RootMEdg2  (kN·m)    
  21   RootMEdg3  (kN·m)    
  22   TwrBsMxt   (kN·m)    
  23   TwrBsMyt   (kN·m)    
  24   TwrBsMzt   (kN·m)    
  25   LSSTipMya  (kN·m)    
  26   LSSTipMza  (kN·m)    
  27   LSSTipVxa  (rpm)     
  28   GenSpeed   (rpm)     
  29   BlPitch1   (deg)     
  30   Azimuth    (deg)     
  31   RotPwr     (kW)      
  32   RotThrust  (kN)      
  33   RotSpeed   (rpm)     
  34   HSShftTq   (kN·m)    
  35   Spn1MLxb1  (kN·m)    
  36   Spn1MLyb1  (kN·m)    
  37   Spn2MLxb1  (kN·m)    
  38   Spn2MLyb1  (kN·m)    
  39   Spn3MLxb1  (kN·m)    
  40   Spn3MLyb1  (kN·m)    
  41   Spn4MLxb1  (kN·m)    
  42   Spn4MLyb1  (kN·m)    
  43   Spn5MLxb1  (kN·m)    
  44   Spn5MLyb1  (kN·m)    
