
This summary file was generated by TurbSim (v1.06.00, 21-Sep-2012) on 15-Mar-2019 at 21:51:02.


Runtime Options:

1465768381  Random seed #1
    RANLUX  Type of random number generator
         F  Output binary HH turbulence parameters?
         F  Output formatted turbulence parameters?
         F  Output AeroDyn HH files?
         F  Output AeroDyn FF files?
         T  Output BLADED FF files?
         F  Output tower data?
         F  Output formatted FF files?
         T  Output coherent turbulence time step file?
         T  Clockwise rotation when looking downwind?
 0 -  NONE  IEC turbulence models scaled to exact specified standard deviation


Turbine/Model Specifications:

        20  Vertical grid-point matrix dimension
        20  Horizontal grid-point matrix dimension
     0.100  Time step [seconds]
   660.000  Analysis time [seconds]
   660.000  Usable output time [seconds]
    90.000  Hub height [m]
   126.000  Grid height [m]
   126.000  Grid width [m]
     0.000  Vertical flow angle [degrees]
     0.000  Horizontal flow angle [degrees]


Meteorological Boundary Conditions:

    IECKAI  IEC Kaimal spectral model
         1  IEC standard: IEC 61400-1 Ed. 3: 2005
         B  IEC turbulence characteristic
      1ETM  IEC Extreme Turbulence Model
     2.000  IEC Extreme Turbulence Model (ETM) "c" parameter [m/s]
       PL   Wind profile type
    90.000  Reference height [m]
    11.400  Reference wind speed [m/s]
       N/A  Jet height [m]
     0.200  Power law exponent
     0.030  Surface roughness length [m]


Coherent turbulence time step files are not available for IEC or TIDAL spectral models.

WARNING:   A coherent turbulence time step file cannot be generated with the IECKAI model.



You have requested that the following file(s) be generated:

   subfunctions\inputfiles\wind.wnd (AeroDyn/BLADED full-field wnd file)


Turbulence Simulation Scaling Parameter Summary:

   Turbulence model used                            =  IEC Kaimal
   Turbulence characteristic                        =  1B
   IEC turbulence type                              =  Extreme Turbulence Model
   Reference wind speed average over 10 minutes     =   50.000 m/s
   Annual wind speed average at hub height          =   10.000 m/s
   IEC standard                                     =  IEC 61400-1 Ed. 3: 2005
   Mean wind speed at hub height                    =   11.400 m/s
   Expected value of turbulence intensity at 15 m/s =   14.000%
   Characteristic value of standard deviation       =    3.074 m/s
   Turbulence scale                                 =   42.000 m
   u-component integral scale                       =  340.200 m
   Coherency scale                                  =  340.200 m
   Characteristic value of hub turbulence intensity =   26.966%
   Gradient Richardson number                       =    0.000

   Wind profile type                                =  Power law
   Power law exponent                               =    0.200
   Mean shear across rotor disk                     =    0.029 (m/s)/m
   Assumed rotor diameter                           =  126.000 m
   Surface roughness length                         =    0.030 m

   Number of time steps in the FFT                  =     6720
   Number of time steps output                      =     6711


Mean Flow Angles:

   Vertical   =   0.0 degrees
   Horizontal =   0.0 degrees

Mean Wind Speed Profile:

   Height    Wind Speed   Horizontal Angle  U-comp (X)   V-comp (Y)   W-comp (Z)
     (m)        (m/s)         (degrees)       (m/s)        (m/s)        (m/s)   
   ------    ----------   ----------------  ----------   ----------   ----------
    153.0       12.68            0.00         12.68         0.00         0.00
    146.4       12.56            0.00         12.56         0.00         0.00
    139.7       12.45            0.00         12.45         0.00         0.00
    133.1       12.33            0.00         12.33         0.00         0.00
    126.5       12.20            0.00         12.20         0.00         0.00
    119.8       12.07            0.00         12.07         0.00         0.00
    113.2       11.94            0.00         11.94         0.00         0.00
    106.6       11.79            0.00         11.79         0.00         0.00
     99.9       11.64            0.00         11.64         0.00         0.00
     93.3       11.48            0.00         11.48         0.00         0.00
     90.0       11.40            0.00         11.40         0.00         0.00
     86.7       11.31            0.00         11.31         0.00         0.00
     80.1       11.14            0.00         11.14         0.00         0.00
     73.4       10.95            0.00         10.95         0.00         0.00
     66.8       10.74            0.00         10.74         0.00         0.00
     60.2       10.52            0.00         10.52         0.00         0.00
     53.5       10.27            0.00         10.27         0.00         0.00
     46.9       10.01            0.00         10.01         0.00         0.00
     40.3        9.71            0.00          9.71         0.00         0.00
     33.6        9.36            0.00          9.36         0.00         0.00
     27.0        8.96            0.00          8.96         0.00         0.00


Harvested Random Seeds after Generation of the Random Numbers:

     37557660 K1
            0 K2


Hub-Height Simulated Turbulence Statistical Summary:

   Type of Wind        Min (m/s)   Mean (m/s)    Max (m/s)  Sigma (m/s)       TI (%)
   ----------------    ---------   ----------    ---------  -----------       ------
   Longitudinal (u)         1.19        11.40        22.45        2.797       24.533
   Lateral (v)             -7.05         0.00         8.41        2.396       21.013
   Vertical (w)            -5.32         0.00         4.98        1.487       13.045
   U component              1.19        11.40        22.45        2.797       24.533
   V component             -7.05         0.00         8.41        2.396       21.013
   W component             -5.32         0.00         4.98        1.487       13.045
   Horizontal (U&V)         1.95        11.67        22.47        2.721       23.326
   Total                    2.05        11.77        22.67        2.704       22.983

                       Min Reynolds     Mean Reynolds    Max Reynolds    Correlation
   Product             Stress (m/s)^2   Stress (m/s)^2   Stress (m/s)^2  Coefficient
   ----------------    --------------   --------------   --------------  -----------
   u'w'                    -45.807             0.124            28.005         0.030
   u'v'                    -35.131             0.286            36.780         0.043
   v'w'                    -24.490            -0.204            31.650        -0.057


   Friction Velocity (Ustar)  =      0.351 m/s
   Maximum Instantaneous TKE  =     65.938 (m/s)^2
   Maximum Instantaneous CTKE =     24.282 (m/s)^2


Grid Point Variance Summary:

   Y-coord  -63.00  -56.37  -49.74  -43.11  -36.47  -29.84  -23.21  -16.58   -9.95   -3.32    3.32    9.95   16.58   23.21   29.84   36.47   43.11   49.74   56.37   63.00

   Height   Standard deviation at grid points for the u component:
   153.00    2.518   2.614   2.780   2.968   3.143   3.036   3.155   3.056   3.295   3.280   2.990   2.960   2.687   2.768   2.914   2.710   2.776   2.681   2.715   2.833
   146.37    2.321   2.638   2.754   2.719   2.768   3.022   3.314   3.135   3.181   3.023   3.003   2.829   2.647   2.783   2.942   2.866   2.806   2.627   2.857   2.747
   139.74    2.315   2.381   2.635   2.819   2.850   3.026   3.225   3.212   3.185   2.990   2.928   2.743   2.751   2.687   2.968   2.957   2.712   2.686   2.696   2.931
   133.11    2.432   2.500   2.547   2.750   2.740   2.948   3.078   3.187   3.140   3.023   2.905   2.749   2.757   2.740   2.845   2.902   2.742   2.718   2.786   3.031
   126.47    2.497   2.535   2.831   2.849   2.818   2.962   2.870   2.963   2.951   2.899   2.793   2.698   2.778   2.818   2.841   2.676   2.744   2.732   2.898   3.166
   119.84    2.649   2.723   2.825   2.913   2.924   2.979   2.815   2.673   2.616   2.691   2.715   2.801   2.717   2.708   2.771   2.610   2.715   2.770   2.830   3.002
   113.21    2.697   2.581   2.731   2.911   2.890   3.013   2.838   2.772   2.775   2.602   2.682   2.824   2.786   2.827   2.706   2.557   2.644   2.980   3.126   3.236
   106.58    2.668   2.601   2.725   2.809   2.933   2.893   2.913   3.055   3.039   2.845   2.798   2.878   2.900   2.768   2.865   2.707   2.911   3.077   3.190   3.379
    99.95    2.730   2.767   2.744   2.824   3.012   2.719   2.892   2.940   2.884   2.938   2.812   2.868   2.955   2.925   2.837   2.862   2.963   3.190   3.290   3.497
    93.32    2.591   2.733   2.795   2.814   3.045   2.830   2.634   2.776   2.712   2.904   2.813   2.956   2.878   2.713   2.916   2.937   3.085   3.383   3.424   3.497
    86.68    2.556   2.583   2.616   2.817   2.935   2.724   2.782   2.662   2.580   2.785   2.826   2.923   2.865   2.687   2.877   2.984   3.051   3.299   3.454   3.323
    80.05    2.506   2.635   2.674   2.678   2.864   2.735   2.707   2.609   2.664   2.576   2.631   2.783   2.912   2.699   2.826   2.974   3.086   3.182   3.348   3.522
    73.42    2.587   2.748   2.669   2.899   2.840   3.030   2.740   2.759   2.702   2.684   2.502   2.655   2.693   2.639   2.793   2.987   3.111   3.157   3.166   3.259
    66.79    2.691   2.700   2.591   2.668   2.912   2.916   2.906   2.808   2.563   2.624   2.604   2.663   2.696   2.776   2.862   2.781   2.991   3.165   3.247   3.332
    60.16    2.661   2.701   2.643   2.576   2.866   2.947   2.705   2.612   2.605   2.407   2.614   2.503   2.553   2.814   2.872   2.736   2.856   3.147   3.019   3.436
    53.53    2.594   2.705   2.806   2.771   2.936   2.926   2.769   2.720   2.654   2.468   2.563   2.573   2.454   2.708   2.944   2.895   2.856   2.785   3.165   3.470
    46.89    2.897   2.860   2.942   3.011   2.873   2.898   2.829   2.831   2.748   2.634   2.587   2.701   2.524   2.707   2.792   2.738   2.810   2.885   3.211   3.392
    40.26    2.883   2.882   3.132   3.126   2.923   2.872   2.896   2.836   3.019   2.858   2.789   2.796   2.752   2.652   2.986   2.771   2.604   2.899   3.094   3.073
    33.63    2.850   3.112   3.274   3.205   3.070   2.719   2.796   2.724   2.905   2.827   2.970   2.887   2.642   2.679   2.795   2.778   2.771   2.887   2.842   2.962
    27.00    2.928   3.094   3.070   3.300   3.168   2.924   2.803   2.611   2.775   2.861   2.675   2.610   2.619   2.591   2.581   2.673   2.802   2.897   2.836   2.907

   Height   Standard deviation at grid points for the v component:
   153.00    2.396   2.396   2.396   2.396   2.396   2.396   2.396   2.396   2.396   2.396   2.396   2.396   2.396   2.396   2.396   2.396   2.396   2.396   2.396   2.396
   146.37    2.396   2.396   2.396   2.396   2.396   2.396   2.396   2.396   2.396   2.396   2.396   2.396   2.396   2.396   2.396   2.396   2.396   2.396   2.396   2.396
   139.74    2.396   2.396   2.396   2.396   2.396   2.396   2.396   2.396   2.396   2.396   2.396   2.396   2.396   2.396   2.396   2.396   2.396   2.396   2.396   2.396
   133.11    2.396   2.396   2.396   2.396   2.396   2.396   2.396   2.396   2.396   2.396   2.396   2.396   2.396   2.396   2.396   2.396   2.396   2.396   2.396   2.396
   126.47    2.396   2.396   2.396   2.396   2.396   2.396   2.396   2.396   2.396   2.396   2.396   2.396   2.396   2.396   2.396   2.396   2.396   2.396   2.396   2.396
   119.84    2.396   2.396   2.396   2.396   2.396   2.396   2.396   2.396   2.396   2.396   2.396   2.396   2.396   2.396   2.396   2.396   2.396   2.396   2.396   2.396
   113.21    2.396   2.396   2.396   2.396   2.396   2.396   2.396   2.396   2.396   2.396   2.396   2.396   2.396   2.396   2.396   2.396   2.396   2.396   2.396   2.396
   106.58    2.396   2.396   2.396   2.396   2.396   2.396   2.396   2.396   2.396   2.396   2.396   2.396   2.396   2.396   2.396   2.396   2.396   2.396   2.396   2.396
    99.95    2.396   2.396   2.396   2.396   2.396   2.396   2.396   2.396   2.396   2.396   2.396   2.396   2.396   2.396   2.396   2.396   2.396   2.396   2.396   2.396
    93.32    2.396   2.396   2.396   2.396   2.396   2.396   2.396   2.396   2.396   2.396   2.396   2.396   2.396   2.396   2.396   2.396   2.396   2.396   2.396   2.396
    86.68    2.396   2.396   2.396   2.396   2.396   2.396   2.396   2.396   2.396   2.396   2.396   2.396   2.396   2.396   2.396   2.396   2.396   2.396   2.396   2.396
    80.05    2.396   2.396   2.396   2.396   2.396   2.396   2.396   2.396   2.396   2.396   2.396   2.396   2.396   2.396   2.396   2.396   2.396   2.396   2.396   2.396
    73.42    2.396   2.396   2.396   2.396   2.396   2.396   2.396   2.396   2.396   2.396   2.396   2.396   2.396   2.396   2.396   2.396   2.396   2.396   2.396   2.396
    66.79    2.396   2.396   2.396   2.396   2.396   2.396   2.396   2.396   2.396   2.396   2.396   2.396   2.396   2.396   2.396   2.396   2.396   2.396   2.396   2.396
    60.16    2.396   2.396   2.396   2.396   2.396   2.396   2.396   2.396   2.396   2.396   2.396   2.396   2.396   2.396   2.396   2.396   2.396   2.396   2.396   2.396
    53.53    2.396   2.396   2.396   2.396   2.396   2.396   2.396   2.396   2.396   2.396   2.396   2.396   2.396   2.396   2.396   2.396   2.396   2.396   2.396   2.396
    46.89    2.396   2.396   2.396   2.396   2.396   2.396   2.396   2.396   2.396   2.396   2.396   2.396   2.396   2.396   2.396   2.396   2.396   2.396   2.396   2.396
    40.26    2.396   2.396   2.396   2.396   2.396   2.396   2.396   2.396   2.396   2.396   2.396   2.396   2.396   2.396   2.396   2.396   2.396   2.396   2.396   2.396
    33.63    2.396   2.396   2.396   2.396   2.396   2.396   2.396   2.396   2.396   2.396   2.396   2.396   2.396   2.396   2.396   2.396   2.396   2.396   2.396   2.396
    27.00    2.396   2.396   2.396   2.396   2.396   2.396   2.396   2.396   2.396   2.396   2.396   2.396   2.396   2.396   2.396   2.396   2.396   2.396   2.396   2.396

   Height   Standard deviation at grid points for the w component:
   153.00    1.487   1.487   1.487   1.487   1.487   1.487   1.487   1.487   1.487   1.487   1.487   1.487   1.487   1.487   1.487   1.487   1.487   1.487   1.487   1.487
   146.37    1.487   1.487   1.487   1.487   1.487   1.487   1.487   1.487   1.487   1.487   1.487   1.487   1.487   1.487   1.487   1.487   1.487   1.487   1.487   1.487
   139.74    1.487   1.487   1.487   1.487   1.487   1.487   1.487   1.487   1.487   1.487   1.487   1.487   1.487   1.487   1.487   1.487   1.487   1.487   1.487   1.487
   133.11    1.487   1.487   1.487   1.487   1.487   1.487   1.487   1.487   1.487   1.487   1.487   1.487   1.487   1.487   1.487   1.487   1.487   1.487   1.487   1.487
   126.47    1.487   1.487   1.487   1.487   1.487   1.487   1.487   1.487   1.487   1.487   1.487   1.487   1.487   1.487   1.487   1.487   1.487   1.487   1.487   1.487
   119.84    1.487   1.487   1.487   1.487   1.487   1.487   1.487   1.487   1.487   1.487   1.487   1.487   1.487   1.487   1.487   1.487   1.487   1.487   1.487   1.487
   113.21    1.487   1.487   1.487   1.487   1.487   1.487   1.487   1.487   1.487   1.487   1.487   1.487   1.487   1.487   1.487   1.487   1.487   1.487   1.487   1.487
   106.58    1.487   1.487   1.487   1.487   1.487   1.487   1.487   1.487   1.487   1.487   1.487   1.487   1.487   1.487   1.487   1.487   1.487   1.487   1.487   1.487
    99.95    1.487   1.487   1.487   1.487   1.487   1.487   1.487   1.487   1.487   1.487   1.487   1.487   1.487   1.487   1.487   1.487   1.487   1.487   1.487   1.487
    93.32    1.487   1.487   1.487   1.487   1.487   1.487   1.487   1.487   1.487   1.487   1.487   1.487   1.487   1.487   1.487   1.487   1.487   1.487   1.487   1.487
    86.68    1.487   1.487   1.487   1.487   1.487   1.487   1.487   1.487   1.487   1.487   1.487   1.487   1.487   1.487   1.487   1.487   1.487   1.487   1.487   1.487
    80.05    1.487   1.487   1.487   1.487   1.487   1.487   1.487   1.487   1.487   1.487   1.487   1.487   1.487   1.487   1.487   1.487   1.487   1.487   1.487   1.487
    73.42    1.487   1.487   1.487   1.487   1.487   1.487   1.487   1.487   1.487   1.487   1.487   1.487   1.487   1.487   1.487   1.487   1.487   1.487   1.487   1.487
    66.79    1.487   1.487   1.487   1.487   1.487   1.487   1.487   1.487   1.487   1.487   1.487   1.487   1.487   1.487   1.487   1.487   1.487   1.487   1.487   1.487
    60.16    1.487   1.487   1.487   1.487   1.487   1.487   1.487   1.487   1.487   1.487   1.487   1.487   1.487   1.487   1.487   1.487   1.487   1.487   1.487   1.487
    53.53    1.487   1.487   1.487   1.487   1.487   1.487   1.487   1.487   1.487   1.487   1.487   1.487   1.487   1.487   1.487   1.487   1.487   1.487   1.487   1.487
    46.89    1.487   1.487   1.487   1.487   1.487   1.487   1.487   1.487   1.487   1.487   1.487   1.487   1.487   1.487   1.487   1.487   1.487   1.487   1.487   1.487
    40.26    1.487   1.487   1.487   1.487   1.487   1.487   1.487   1.487   1.487   1.487   1.487   1.487   1.487   1.487   1.487   1.487   1.487   1.487   1.487   1.487
    33.63    1.487   1.487   1.487   1.487   1.487   1.487   1.487   1.487   1.487   1.487   1.487   1.487   1.487   1.487   1.487   1.487   1.487   1.487   1.487   1.487
    27.00    1.487   1.487   1.487   1.487   1.487   1.487   1.487   1.487   1.487   1.487   1.487   1.487   1.487   1.487   1.487   1.487   1.487   1.487   1.487   1.487

   Mean standard deviation across all grid points:
      u component:    2.846 m/s
      v component:    2.396 m/s
      w component:    1.487 m/s


U-component (X) statistics from the interpolated hub point:

   Mean =  11.3988 m/s
   TI   =  22.3184 %


Normalizing Parameters for Binary Data (approximate statistics):

   UBar  =  11.4000 m/s
   TI(u) =  24.5333 %
   TI(v) =  21.0134 %
   TI(w) =  13.0449 %

   Height Offset =   0.0000 m
   Grid Base     =  27.0000 m

Nyquist frequency of turbulent wind field =         5.000 Hz


Processing complete.  12.703 CPU seconds used.
