
This summary file was generated by TurbSim (v1.06.00, 21-Sep-2012) on 27-Jul-2019 at 01:10:04.


Runtime Options:

-130288308  Random seed #1
    RANLUX  Type of random number generator
         F  Output binary HH turbulence parameters?
         F  Output formatted turbulence parameters?
         F  Output AeroDyn HH files?
         F  Output AeroDyn FF files?
         T  Output BLADED FF files?
         F  Output tower data?
         F  Output formatted FF files?
         T  Output coherent turbulence time step file?
         T  Clockwise rotation when looking downwind?
 0 -  NONE  IEC turbulence models scaled to exact specified standard deviation


Turbine/Model Specifications:

        20  Vertical grid-point matrix dimension
        20  Horizontal grid-point matrix dimension
     0.100  Time step [seconds]
   600.000  Analysis time [seconds]
   600.000  Usable output time [seconds]
    90.000  Hub height [m]
   126.000  Grid height [m]
   126.000  Grid width [m]
     0.000  Vertical flow angle [degrees]
     0.000  Horizontal flow angle [degrees]


Meteorological Boundary Conditions:

    IECKAI  IEC Kaimal spectral model
         1  IEC standard: IEC 61400-1 Ed. 3: 2005
         B  IEC turbulence characteristic
       NTM  IEC Normal Turbulence Model
       N/A  IEC Extreme Turbulence Model (ETM) "c" parameter [m/s]
       PL   Wind profile type
    90.000  Reference height [m]
    24.000  Reference wind speed [m/s]
       N/A  Jet height [m]
     0.200  Power law exponent
     0.030  Surface roughness length [m]


Coherent turbulence time step files are not available for IEC or TIDAL spectral models.

WARNING:   A coherent turbulence time step file cannot be generated with the IECKAI model.



You have requested that the following file(s) be generated:

   subfunctions\inputfiles\wind.wnd (AeroDyn/BLADED full-field wnd file)


Turbulence Simulation Scaling Parameter Summary:

   Turbulence model used                            =  IEC Kaimal
   Turbulence characteristic                        =  B
   IEC turbulence type                              =  Normal Turbulence Model
   IEC standard                                     =  IEC 61400-1 Ed. 3: 2005
   Mean wind speed at hub height                    =   24.000 m/s
   Expected value of turbulence intensity at 15 m/s =   14.000%
   Characteristic value of standard deviation       =    3.304 m/s
   Turbulence scale                                 =   42.000 m
   u-component integral scale                       =  340.200 m
   Coherency scale                                  =  340.200 m
   Characteristic value of hub turbulence intensity =   13.767%
   Gradient Richardson number                       =    0.000

   Wind profile type                                =  Power law
   Power law exponent                               =    0.200
   Mean shear across rotor disk                     =    0.062 (m/s)/m
   Assumed rotor diameter                           =  126.000 m
   Surface roughness length                         =    0.030 m

   Number of time steps in the FFT                  =     6072
   Number of time steps output                      =     6053


Mean Flow Angles:

   Vertical   =   0.0 degrees
   Horizontal =   0.0 degrees

Mean Wind Speed Profile:

   Height    Wind Speed   Horizontal Angle  U-comp (X)   V-comp (Y)   W-comp (Z)
     (m)        (m/s)         (degrees)       (m/s)        (m/s)        (m/s)   
   ------    ----------   ----------------  ----------   ----------   ----------
    153.0       26.69            0.00         26.69         0.00         0.00
    146.4       26.45            0.00         26.45         0.00         0.00
    139.7       26.21            0.00         26.21         0.00         0.00
    133.1       25.95            0.00         25.95         0.00         0.00
    126.5       25.69            0.00         25.69         0.00         0.00
    119.8       25.41            0.00         25.41         0.00         0.00
    113.2       25.13            0.00         25.13         0.00         0.00
    106.6       24.83            0.00         24.83         0.00         0.00
     99.9       24.51            0.00         24.51         0.00         0.00
     93.3       24.17            0.00         24.17         0.00         0.00
     90.0       24.00            0.00         24.00         0.00         0.00
     86.7       23.82            0.00         23.82         0.00         0.00
     80.1       23.44            0.00         23.44         0.00         0.00
     73.4       23.04            0.00         23.04         0.00         0.00
     66.8       22.61            0.00         22.61         0.00         0.00
     60.2       22.14            0.00         22.14         0.00         0.00
     53.5       21.63            0.00         21.63         0.00         0.00
     46.9       21.07            0.00         21.07         0.00         0.00
     40.3       20.43            0.00         20.43         0.00         0.00
     33.6       19.71            0.00         19.71         0.00         0.00
     27.0       18.86            0.00         18.86         0.00         0.00


Harvested Random Seeds after Generation of the Random Numbers:

     33935929 K1
            0 K2


Hub-Height Simulated Turbulence Statistical Summary:

   Type of Wind        Min (m/s)   Mean (m/s)    Max (m/s)  Sigma (m/s)       TI (%)
   ----------------    ---------   ----------    ---------  -----------       ------
   Longitudinal (u)        15.32        24.00        33.68        2.988       12.448
   Lateral (v)             -8.21         0.00         9.92        2.574       10.723
   Vertical (w)            -6.79         0.00         5.40        1.571        6.544
   U component             15.32        24.00        33.68        2.988       12.448
   V component             -8.21         0.00         9.92        2.574       10.723
   W component             -6.79         0.00         5.40        1.571        6.544
   Horizontal (U&V)        15.51        24.14        33.70        2.992       12.397
   Total                   15.56        24.19        33.71        2.988       12.354

                       Min Reynolds     Mean Reynolds    Max Reynolds    Correlation
   Product             Stress (m/s)^2   Stress (m/s)^2   Stress (m/s)^2  Coefficient
   ----------------    --------------   --------------   --------------  -----------
   u'w'                    -24.688            -0.123            35.199        -0.026
   u'v'                    -49.841            -0.243            38.264        -0.032
   v'w'                    -31.069             0.046            27.268         0.011


   Friction Velocity (Ustar)  =      0.350 m/s
   Maximum Instantaneous TKE  =     51.407 (m/s)^2
   Maximum Instantaneous CTKE =     25.541 (m/s)^2


Grid Point Variance Summary:

   Y-coord  -63.00  -56.37  -49.74  -43.11  -36.47  -29.84  -23.21  -16.58   -9.95   -3.32    3.32    9.95   16.58   23.21   29.84   36.47   43.11   49.74   56.37   63.00

   Height   Standard deviation at grid points for the u component:
   153.00    2.943   3.000   3.018   2.958   3.097   3.309   3.155   3.041   2.993   3.112   3.065   3.173   3.009   3.087   3.089   3.061   3.200   3.098   3.081   3.083
   146.37    3.029   3.081   3.145   3.149   3.162   3.159   3.207   3.033   3.040   3.154   3.099   3.184   3.213   3.011   3.070   3.020   3.005   3.015   2.940   2.909
   139.74    3.166   3.203   3.278   3.174   3.256   3.110   3.095   3.127   3.237   3.186   3.208   3.166   3.194   3.149   3.174   3.076   3.093   3.185   3.040   3.028
   133.11    2.990   3.247   3.339   3.315   3.227   3.249   3.131   3.257   3.125   3.189   3.110   3.053   3.057   3.086   3.276   3.124   3.037   2.971   2.996   3.087
   126.47    3.127   3.171   3.330   3.135   3.184   3.028   3.102   3.123   3.301   3.176   3.110   2.971   2.974   3.115   3.211   3.137   3.013   2.838   2.891   3.092
   119.84    3.189   3.143   3.229   3.144   3.053   2.991   2.988   3.048   3.238   3.323   3.062   3.104   3.120   3.098   3.007   3.043   3.038   2.994   3.012   3.151
   113.21    3.227   3.159   3.194   3.053   3.115   2.986   2.990   3.081   3.074   3.054   3.081   3.089   3.099   3.094   2.973   3.088   2.998   3.026   2.984   3.043
   106.58    3.299   3.378   3.260   3.212   3.118   2.921   2.905   2.986   3.134   3.064   3.161   3.152   3.141   3.035   3.033   3.126   2.951   2.948   2.975   2.944
    99.95    3.418   3.430   3.290   3.192   3.074   2.937   2.917   3.110   3.187   3.130   3.239   3.169   3.155   2.820   2.968   3.118   3.134   3.026   2.889   3.011
    93.32    3.351   3.209   3.267   3.175   3.139   2.967   2.973   2.946   2.990   2.955   3.119   3.181   3.169   2.932   3.001   3.070   3.212   3.141   3.037   3.018
    86.68    3.304   3.243   3.092   3.097   3.027   2.870   2.851   2.808   2.846   3.008   3.098   2.925   3.139   3.162   3.107   3.090   3.287   3.157   3.160   3.140
    80.05    3.318   3.154   3.077   2.914   2.821   2.889   3.056   2.947   2.838   2.955   2.948   3.151   3.221   3.322   3.230   3.187   3.370   3.241   3.318   3.263
    73.42    3.275   3.220   3.173   3.242   2.955   2.957   3.153   3.108   3.124   3.120   3.097   3.155   3.094   3.216   3.406   3.307   3.405   3.478   3.353   3.310
    66.79    3.264   3.208   3.090   3.293   3.181   3.108   3.293   3.176   3.169   3.277   3.113   3.190   3.121   3.240   3.378   3.422   3.470   3.438   3.330   3.329
    60.16    3.268   3.275   3.279   3.322   3.297   3.275   3.282   3.249   3.121   3.153   3.311   3.381   3.391   3.269   3.220   3.403   3.566   3.489   3.380   3.271
    53.53    3.142   3.144   3.250   3.318   3.465   3.446   3.452   3.293   3.282   3.237   3.270   3.264   3.430   3.416   3.358   3.356   3.472   3.594   3.417   3.257
    46.89    3.187   3.228   3.318   3.357   3.428   3.366   3.365   3.226   3.259   3.206   3.277   3.330   3.512   3.492   3.395   3.294   3.424   3.500   3.338   3.365
    40.26    3.284   3.252   3.313   3.299   3.215   3.321   3.289   3.229   3.132   3.197   3.275   3.302   3.288   3.318   3.332   3.364   3.325   3.380   3.331   3.434
    33.63    3.325   3.340   3.366   3.192   3.137   3.149   3.232   3.148   3.236   3.150   3.172   3.282   3.206   3.257   3.356   3.286   3.297   3.247   3.251   3.171
    27.00    3.199   3.344   3.325   3.252   3.149   3.029   3.081   3.276   3.139   3.010   3.083   3.079   3.170   3.171   3.264   3.184   3.188   3.083   3.201   3.248

   Height   Standard deviation at grid points for the v component:
   153.00    2.574   2.574   2.574   2.574   2.574   2.574   2.574   2.574   2.574   2.574   2.574   2.574   2.574   2.574   2.574   2.574   2.574   2.574   2.574   2.574
   146.37    2.574   2.574   2.574   2.574   2.574   2.574   2.574   2.574   2.574   2.574   2.574   2.574   2.574   2.574   2.574   2.574   2.574   2.574   2.574   2.574
   139.74    2.574   2.574   2.574   2.574   2.574   2.574   2.574   2.574   2.574   2.574   2.574   2.574   2.574   2.574   2.574   2.574   2.574   2.574   2.574   2.574
   133.11    2.574   2.574   2.574   2.574   2.574   2.574   2.574   2.574   2.574   2.574   2.574   2.574   2.574   2.574   2.574   2.574   2.574   2.574   2.574   2.574
   126.47    2.574   2.574   2.574   2.574   2.574   2.574   2.574   2.574   2.574   2.574   2.574   2.574   2.574   2.574   2.574   2.574   2.574   2.574   2.574   2.574
   119.84    2.574   2.574   2.574   2.574   2.574   2.574   2.574   2.574   2.574   2.574   2.574   2.574   2.574   2.574   2.574   2.574   2.574   2.574   2.574   2.574
   113.21    2.574   2.574   2.574   2.574   2.574   2.574   2.574   2.574   2.574   2.574   2.574   2.574   2.574   2.574   2.574   2.574   2.574   2.574   2.574   2.574
   106.58    2.574   2.574   2.574   2.574   2.574   2.574   2.574   2.574   2.574   2.574   2.574   2.574   2.574   2.574   2.574   2.574   2.574   2.574   2.574   2.574
    99.95    2.574   2.574   2.574   2.574   2.574   2.574   2.574   2.574   2.574   2.574   2.574   2.574   2.574   2.574   2.574   2.574   2.574   2.574   2.574   2.574
    93.32    2.574   2.574   2.574   2.574   2.574   2.574   2.574   2.574   2.574   2.574   2.574   2.574   2.574   2.574   2.574   2.574   2.574   2.574   2.574   2.574
    86.68    2.574   2.574   2.574   2.574   2.574   2.574   2.574   2.574   2.574   2.574   2.574   2.574   2.574   2.574   2.574   2.574   2.574   2.574   2.574   2.574
    80.05    2.574   2.574   2.574   2.574   2.574   2.574   2.574   2.574   2.574   2.574   2.574   2.574   2.574   2.574   2.574   2.574   2.574   2.574   2.574   2.574
    73.42    2.574   2.574   2.574   2.574   2.574   2.574   2.574   2.574   2.574   2.574   2.574   2.574   2.574   2.574   2.574   2.574   2.574   2.574   2.574   2.574
    66.79    2.574   2.574   2.574   2.574   2.574   2.574   2.574   2.574   2.574   2.574   2.574   2.574   2.574   2.574   2.574   2.574   2.574   2.574   2.574   2.574
    60.16    2.574   2.574   2.574   2.574   2.574   2.574   2.574   2.574   2.574   2.574   2.574   2.574   2.574   2.574   2.574   2.574   2.574   2.574   2.574   2.574
    53.53    2.574   2.574   2.574   2.574   2.574   2.574   2.574   2.574   2.574   2.574   2.574   2.574   2.574   2.574   2.574   2.574   2.574   2.574   2.574   2.574
    46.89    2.574   2.574   2.574   2.574   2.574   2.574   2.574   2.574   2.574   2.574   2.574   2.574   2.574   2.574   2.574   2.574   2.574   2.574   2.574   2.574
    40.26    2.574   2.574   2.574   2.574   2.574   2.574   2.574   2.574   2.574   2.574   2.574   2.574   2.574   2.574   2.574   2.574   2.574   2.574   2.574   2.574
    33.63    2.574   2.574   2.574   2.574   2.574   2.574   2.574   2.574   2.574   2.574   2.574   2.574   2.574   2.574   2.574   2.574   2.574   2.574   2.574   2.574
    27.00    2.574   2.574   2.574   2.574   2.574   2.574   2.574   2.574   2.574   2.574   2.574   2.574   2.574   2.574   2.574   2.574   2.574   2.574   2.574   2.574

   Height   Standard deviation at grid points for the w component:
   153.00    1.571   1.571   1.571   1.571   1.571   1.571   1.571   1.571   1.571   1.571   1.571   1.571   1.571   1.571   1.571   1.571   1.571   1.571   1.571   1.571
   146.37    1.571   1.571   1.571   1.571   1.571   1.571   1.571   1.571   1.571   1.571   1.571   1.571   1.571   1.571   1.571   1.571   1.571   1.571   1.571   1.571
   139.74    1.571   1.571   1.571   1.571   1.571   1.571   1.571   1.571   1.571   1.571   1.571   1.571   1.571   1.571   1.571   1.571   1.571   1.571   1.571   1.571
   133.11    1.571   1.571   1.571   1.571   1.571   1.571   1.571   1.571   1.571   1.571   1.571   1.571   1.571   1.571   1.571   1.571   1.571   1.571   1.571   1.571
   126.47    1.571   1.571   1.571   1.571   1.571   1.571   1.571   1.571   1.571   1.571   1.571   1.571   1.571   1.571   1.571   1.571   1.571   1.571   1.571   1.571
   119.84    1.571   1.571   1.571   1.571   1.571   1.571   1.571   1.571   1.571   1.571   1.571   1.571   1.571   1.571   1.571   1.571   1.571   1.571   1.571   1.571
   113.21    1.571   1.571   1.571   1.571   1.571   1.571   1.571   1.571   1.571   1.571   1.571   1.571   1.571   1.571   1.571   1.571   1.571   1.571   1.571   1.571
   106.58    1.571   1.571   1.571   1.571   1.571   1.571   1.571   1.571   1.571   1.571   1.571   1.571   1.571   1.571   1.571   1.571   1.571   1.571   1.571   1.571
    99.95    1.571   1.571   1.571   1.571   1.571   1.571   1.571   1.571   1.571   1.571   1.571   1.571   1.571   1.571   1.571   1.571   1.571   1.571   1.571   1.571
    93.32    1.571   1.571   1.571   1.571   1.571   1.571   1.571   1.571   1.571   1.571   1.571   1.571   1.571   1.571   1.571   1.571   1.571   1.571   1.571   1.571
    86.68    1.571   1.571   1.571   1.571   1.571   1.571   1.571   1.571   1.571   1.571   1.571   1.571   1.571   1.571   1.571   1.571   1.571   1.571   1.571   1.571
    80.05    1.571   1.571   1.571   1.571   1.571   1.571   1.571   1.571   1.571   1.571   1.571   1.571   1.571   1.571   1.571   1.571   1.571   1.571   1.571   1.571
    73.42    1.571   1.571   1.571   1.571   1.571   1.571   1.571   1.571   1.571   1.571   1.571   1.571   1.571   1.571   1.571   1.571   1.571   1.571   1.571   1.571
    66.79    1.571   1.571   1.571   1.571   1.571   1.571   1.571   1.571   1.571   1.571   1.571   1.571   1.571   1.571   1.571   1.571   1.571   1.571   1.571   1.571
    60.16    1.571   1.571   1.571   1.571   1.571   1.571   1.571   1.571   1.571   1.571   1.571   1.571   1.571   1.571   1.571   1.571   1.571   1.571   1.571   1.571
    53.53    1.571   1.571   1.571   1.571   1.571   1.571   1.571   1.571   1.571   1.571   1.571   1.571   1.571   1.571   1.571   1.571   1.571   1.571   1.571   1.571
    46.89    1.571   1.571   1.571   1.571   1.571   1.571   1.571   1.571   1.571   1.571   1.571   1.571   1.571   1.571   1.571   1.571   1.571   1.571   1.571   1.571
    40.26    1.571   1.571   1.571   1.571   1.571   1.571   1.571   1.571   1.571   1.571   1.571   1.571   1.571   1.571   1.571   1.571   1.571   1.571   1.571   1.571
    33.63    1.571   1.571   1.571   1.571   1.571   1.571   1.571   1.571   1.571   1.571   1.571   1.571   1.571   1.571   1.571   1.571   1.571   1.571   1.571   1.571
    27.00    1.571   1.571   1.571   1.571   1.571   1.571   1.571   1.571   1.571   1.571   1.571   1.571   1.571   1.571   1.571   1.571   1.571   1.571   1.571   1.571

   Mean standard deviation across all grid points:
      u component:    3.168 m/s
      v component:    2.574 m/s
      w component:    1.571 m/s


U-component (X) statistics from the interpolated hub point:

   Mean =  23.9974 m/s
   TI   =  11.5452 %


Normalizing Parameters for Binary Data (approximate statistics):

   UBar  =  24.0000 m/s
   TI(u) =  12.4480 %
   TI(v) =  10.7233 %
   TI(w) =   6.5442 %

   Height Offset =   0.0000 m
   Grid Base     =  27.0000 m

Nyquist frequency of turbulent wind field =         5.000 Hz


Processing complete.  10.578 CPU seconds used.
